Circuit: * C:\Users\julesr0y\OneDrive - JUNIA Grande école d'ingénieurs\Electronique\TP\TP3\TP3_ex5.asc

.OP point found by inspection.

Date: Fri Nov 25 15:25:15 2022
Total elapsed time: 0.092 seconds.

tnom = 27
temp = 27
method = modified trap
totiter = 2958
traniter = 2958
tranpoints = 1480
accept = 1457
rejected = 23
matrix size = 3
fillins = 0
solver = Normal
Matrix Compiler1: off  [0.1]/0.1/0.1
Matrix Compiler2: 175 bytes object code size  0.1/0.1/[0.1]

